4mu_acetate
     RDKit          3D

 16 17  0  0  0  0  0  0  0  0999 V2000
   -1.9832   -2.4269    0.9279 O   0  0  0  0  0  0  0  0  0  0  0  0
   -0.8035   -2.3035    1.2295 C   0  0  0  0  0  0  0  0  0  0  0  0
   -0.2477   -2.4383    2.4979 O   0  0  0  0  0  0  0  0  0  0  0  0
   -1.1640   -2.7451    3.5075 C   0  0  0  0  0  0  0  0  0  0  0  0
   -1.3646   -1.8063    4.5113 C   0  0  0  0  0  0  0  0  0  0  0  0
   -2.2408   -2.1207    5.5493 C   0  0  0  0  0  0  0  0  0  0  0  0
   -2.9100   -3.3475    5.6183 C   0  0  0  0  0  0  0  0  0  0  0  0
   -2.6705   -4.2825    4.6009 C   0  0  0  0  0  0  0  0  0  0  0  0
   -1.7932   -3.9882    3.5507 C   0  0  0  0  0  0  0  0  0  0  0  0
   -3.8197   -3.5915    6.7464 C   0  0  0  0  0  0  0  0  0  0  0  0
   -3.9660   -2.6268    7.6666 C   0  0  0  0  0  0  0  0  0  0  0  0
   -3.2634   -1.3358    7.6103 C   0  0  0  0  0  0  0  0  0  0  0  0
   -3.4319   -0.4934    8.4845 O   0  0  0  0  0  0  0  0  0  0  0  0
   -2.4159   -1.1311    6.5363 O   0  0  0  0  0  0  0  0  0  0  0  0
   -4.5618   -4.8910    6.8514 C   0  0  0  0  0  0  0  0  0  0  0  0
    0.2859   -1.9505    0.2480 C   0  0  0  0  0  0  0  0  0  0  0  0
  2  1  2  0
  2  3  1  0
  3  4  1  0
  4  5  2  0
  9  4  1  0
  9  8  2  0
  8  7  1  0
  7  6  2  0
  7 10  1  0
 10 11  2  0
 11 12  1  0
 12 13  2  0
  6 14  1  0
 16  2  1  0
 14 12  1  0
  5  6  1  0
 15 10  1  0
M  END
$$$$
